Version 4
SHEET 1 1220 680
WIRE 464 32 304 32
WIRE -32 96 -32 80
WIRE -32 96 -64 96
WIRE 80 96 -32 96
WIRE 192 96 176 64
WIRE 304 96 304 32
WIRE 304 96 192 96
WIRE 464 96 464 32
WIRE 464 96 432 96
WIRE 496 96 464 96
WIRE -32 112 -32 96
WIRE 80 112 80 96
WIRE 192 112 192 96
WIRE 368 160 368 96
WIRE 368 160 320 160
WIRE 560 160 560 96
WIRE 624 160 560 160
WIRE 688 160 624 160
WIRE 736 160 688 160
WIRE 1040 160 992 160
WIRE 1152 160 1040 160
WIRE 624 192 624 160
WIRE 1152 192 1152 160
WIRE -32 208 -32 192
WIRE 80 208 80 192
WIRE 80 208 -32 208
WIRE 192 208 192 192
WIRE 304 208 192 208
WIRE 368 208 368 160
WIRE 464 208 432 208
WIRE 496 208 464 208
WIRE 560 208 560 160
WIRE -32 224 -32 208
WIRE 192 224 192 208
WIRE 304 272 304 208
WIRE 464 272 464 208
WIRE 464 272 304 272
WIRE 320 304 320 160
WIRE 624 304 624 256
WIRE 624 304 320 304
WIRE 688 304 688 224
WIRE 688 304 624 304
WIRE 864 304 864 256
WIRE 864 304 688 304
WIRE 1040 304 1040 224
WIRE 1040 304 864 304
WIRE 1152 304 1152 272
WIRE 1152 304 1040 304
FLAG -32 224 0
FLAG -64 96 mains
FLAG 192 224 0
FLAG 176 64 secondary
FLAG 560 160 rect
SYMBOL voltage -32 96 R0
WINDOW 3 -248 72 Left 2
WINDOW 123 0 0 Left 2
WINDOW 39 -153 103 Left 2
SYMATTR Value SINE(0 170 60)
SYMATTR SpiceLine Rser=100u
SYMATTR InstName V1
SYMBOL ind2 64 96 R0
SYMATTR InstName LP
SYMATTR Value 4096µ
SYMATTR Type ind
SYMBOL ind2 176 96 R0
SYMATTR InstName LS
SYMATTR Value 100µ
SYMATTR Type ind
SYMBOL diode 368 112 R270
WINDOW 0 32 32 VTop 2
WINDOW 3 0 32 VBottom 2
SYMATTR InstName D1
SYMATTR Value 1N4001
SYMBOL diode 368 224 R270
WINDOW 0 32 32 VTop 2
WINDOW 3 0 32 VBottom 2
SYMATTR InstName D2
SYMATTR Value 1N4001
SYMBOL diode 496 112 R270
WINDOW 0 32 32 VTop 2
WINDOW 3 0 32 VBottom 2
SYMATTR InstName D3
SYMATTR Value 1N4001
SYMBOL diode 496 224 R270
WINDOW 0 32 32 VTop 2
WINDOW 3 0 32 VBottom 2
SYMATTR InstName D4
SYMATTR Value 1N4001
SYMBOL cap 608 192 R0
SYMATTR InstName C1
SYMATTR Value 2200µ
SYMBOL Linear\ Regulators\\7805 864 160 R0
SYMATTR InstName U1
SYMBOL res 1136 176 R0
SYMATTR InstName RL
SYMATTR Value 100
SYMBOL cap 672 160 R0
SYMATTR InstName C2
SYMATTR Value 1µ
SYMBOL cap 1024 160 R0
SYMATTR InstName C3
SYMATTR Value 0.1µ
TEXT -240 408 Left 2 !.tran 0.0833
TEXT -224 440 Left 2 !K LP LS 1
