Version 4
SHEET 1 880 680
WIRE 48 -144 -384 -144
WIRE 48 -112 48 -144
WIRE -384 -48 -384 -144
WIRE 48 16 48 -32
WIRE -384 48 -384 32
WIRE -384 48 -416 48
WIRE -384 128 -384 48
WIRE 48 128 48 96
WIRE 48 128 -384 128
FLAG -416 48 0
SYMBOL voltage -384 -64 R0
WINDOW 123 0 0 Left 2
WINDOW 39 0 0 Left 2
SYMATTR InstName V1
SYMATTR Value PULSE(0 10 1 1n 1n 1)
SYMBOL res 32 -128 R0
SYMATTR InstName R1
SYMATTR Value 10
SYMBOL ind 32 0 R0
SYMATTR InstName L1
SYMATTR Value 1
SYMATTR SpiceLine Rser=0 Rpar=0
TEXT -408 288 Left 2 !.tran 3
